Circuit: * C:\Users\matia\Desktop\Facultad\2020 1° cuatrimestre\Circuitos 2\Repositorio\ProyectoDCE\TP1\Ejercicio 1\EJERCICO1a.asc

Direct Newton iteration failed to find .op point.  (Use ".option noopiter" to skip.)
Starting Gmin stepping
Gmin = 10
Gmin = 1.07374
Gmin = 0.115292
Gmin = 0.0123794
Gmin = 0.00132923
Gmin = 0.000142725
Gmin = 1.5325e-005
Gmin = 1.6455e-006
Gmin = 1.76685e-007
Gmin = 1.89714e-008
Gmin = 2.03704e-009
Gmin = 2.18725e-010
Gmin = 2.34854e-011
Gmin = 2.52173e-012
Gmin = 2.70769e-013
Gmin = 0
Gmin stepping succeeded in finding the operating point.

Direct Newton iteration failed to find .op point.  (Use ".option noopiter" to skip.)
Starting Gmin stepping
Gmin = 10
Gmin = 1.07374
Gmin = 0.115292
Gmin = 0.0123794
Gmin = 0.00132923
Gmin = 0.000142725
Gmin = 1.5325e-005
Gmin = 1.6455e-006
Gmin = 1.76685e-007
Gmin = 1.89714e-008
Gmin = 2.03704e-009
Gmin = 2.18725e-010
vernier = 0.5
vernier = 0.25
Gmin = 9.2532e-011
vernier = 0.125
vernier = 0.166667
Gmin = 6.74661e-011
vernier = 0.0833333
Gmin = 5.38425e-011
vernier = 0.111111
vernier = 0.148148
vernier = 0.074074
Gmin = 4.40344e-011
vernier = 0.0987653
vernier = 0.0493827
Gmin = 3.87237e-011
vernier = 0.0246913
vernier = 0.0329218
Gmin = 3.67878e-011
vernier = 0.0438957
vernier = 0.0585276
Gmin = 3.29251e-011
vernier = 0.0780367
Gmin = 2.7666e-011
vernier = 0.104049
vernier = 0.138732
Gmin = 2.0692e-011
vernier = 0.184976
vernier = 0.246634
Gmin = 1.30743e-011
vernier = 0.328846
Gmin = 6.4063e-012
vernier = 0.438461
vernier = 0.584614
Gmin = 1.98885e-012
vernier = 0.779486
vernier = 1
Gmin = 3.32942e-013
Gmin = 0
Gmin stepping succeeded in finding the operating point.


Date: Thu Apr 23 18:47:10 2020
Total elapsed time: 0.234 seconds.

tnom = 27
temp = 27
method = trap
totiter = 4199
traniter = 0
tranpoints = 0
accept = 0
rejected = 0
matrix size = 16
fillins = 6
solver = Normal
Matrix Compiler1: 1.17 KB object code size  0.3/0.2/[0.1]
Matrix Compiler2: 1.67 KB object code size  0.2/0.2/[0.1]

