Circuit: * C:\Users\matia\Desktop\Facultad\2020 1° cuatrimestre\Circuitos 2\Repositorio\ProyectoDCE\TP1\Ejercicio 1\EJERCICO1c-5.asc

Direct Newton iteration failed to find .op point.  (Use ".option noopiter" to skip.)
Starting Gmin stepping
Gmin = 10
Gmin = 1.07374
Gmin = 0.115292
Gmin = 0.0123794
Gmin = 0.00132923
Gmin = 0.000142725
Gmin = 1.5325e-005
Gmin = 1.6455e-006
Gmin = 1.76685e-007
Gmin = 1.89714e-008
Gmin = 2.03704e-009
Gmin = 2.18725e-010
Gmin = 2.34854e-011
Gmin = 2.52173e-012
Gmin = 2.70769e-013
Gmin = 0
Gmin stepping succeeded in finding the operating point.

Direct Newton iteration failed to find .op point.  (Use ".option noopiter" to skip.)
Starting Gmin stepping
Gmin = 10
Gmin = 1.07374
Gmin = 0.115292
Gmin = 0.0123794
Gmin = 0.00132923
Gmin = 0.000142725
Gmin = 1.5325e-005
Gmin = 1.6455e-006
Gmin = 1.76685e-007
Gmin = 1.89714e-008
Gmin = 2.03704e-009
Gmin = 2.18725e-010
vernier = 0.5
vernier = 0.25
Gmin = 9.79751e-011
vernier = 0.333333
vernier = 0.166667
Gmin = 6.66017e-011
vernier = 0.222222
vernier = 0.111111
vernier = 0.148148
Gmin = 5.20722e-011
vernier = 0.074074
vernier = 0.0987653
Gmin = 4.46872e-011
vernier = 0.131687
vernier = 0.0658435
vernier = 0.0877914
Gmin = 3.83809e-011
vernier = 0.0438957
vernier = 0.0585276
Gmin = 3.45438e-011
vernier = 0.0780367
vernier = 0.0390184
Gmin = 3.13525e-011
vernier = 0.0520245
vernier = 0.0693659
vernier = 0.034683
Gmin = 2.84862e-011
vernier = 0.046244
Gmin = 2.56853e-011
vernier = 0.0616586
vernier = 0.0308293
vernier = 0.0411057
Gmin = 2.39713e-011
vernier = 0.0548076
vernier = 0.0274038
Gmin = 2.2467e-011
vernier = 0.0365384
vernier = 0.0487178
vernier = 0.0243589
Gmin = 2.10173e-011
vernier = 0.0324786
vernier = 0.0433047
Gmin = 1.94499e-011
vernier = 0.0216524
vernier = 0.0288698
Gmin = 1.85943e-011
vernier = 0.0384931
vernier = 0.0513241
Gmin = 1.68695e-011
vernier = 0.0684321
Gmin = 1.44794e-011
vernier = 0.0912428
vernier = 0.121657
Gmin = 1.12185e-011
vernier = 0.162209
vernier = 0.216279
Gmin = 7.49181e-012
vernier = 0.288372
Gmin = 3.99682e-012
vernier = 0.384496
vernier = 0.512661
Gmin = 1.42254e-012
vernier = 0.683548
vernier = 0.911397
Gmin = 2.87701e-013
vernier = 1
Gmin = 0
Gmin stepping succeeded in finding the operating point.


Date: Thu Apr 23 18:48:17 2020
Total elapsed time: 0.157 seconds.

tnom = 27
temp = 27
method = trap
totiter = 5556
traniter = 0
tranpoints = 0
accept = 0
rejected = 0
matrix size = 16
fillins = 4
solver = Normal
Matrix Compiler1: 1.09 KB object code size  0.3/0.2/[0.1]
Matrix Compiler2: 1.64 KB object code size  0.1/0.2/[0.1]

