Circuit: * C:\Users\matia\Desktop\Facultad\2020 1° cuatrimestre\Circuitos 2\Repositorio\ProyectoDCE\TP1\Ejercicio 1\EJERCICO1b.asc

Direct Newton iteration for .op point succeeded.

Date: Fri Apr 24 15:08:15 2020
Total elapsed time: 0.078 seconds.

tnom = 27
temp = 27
method = modified trap
totiter = 3353
traniter = 3339
tranpoints = 1571
accept = 1501
rejected = 70
matrix size = 16
fillins = 4
solver = Normal
Matrix Compiler1: 1.09 KB object code size  0.2/0.1/[0.1]
Matrix Compiler2: 1.64 KB object code size  0.2/1.4/[0.2]

