Circuit: * /Users/Caro/Documents/FIUBA/MATERIAS/DCE/ProyectoDCE/TP1/Draft1.asc

Direct Newton iteration failed to find .op point.  (Use ".option noopiter" to skip.)
Starting Gmin stepping
Gmin = 10
Gmin = 1.07374
Gmin = 0.115292
Gmin = 0.0123794
Gmin = 0.00132923
Gmin = 0.000142725
Gmin = 1.5325e-05
vernier = 0.5
vernier = 0.25
vernier = 0.125
vernier = 0.0625
Gmin = 5.02168e-06
vernier = 0.03125
vernier = 0.015625
vernier = 0.0078125
vernier = 0.00390625
vernier = 0.00195312
vernier = 0.000976562
Gmin = 5.01678e-06
vernier = 0.00130208
vernier = 0.00173611
Gmin = 4.99926e-06
vernier = 0.00231481
vernier = 0.00308642
Gmin = 4.97162e-06
vernier = 0.00411522
Gmin = 4.92708e-06
vernier = 0.00548696
vernier = 0.00731595
Gmin = 4.85502e-06
vernier = 0.00365797
vernier = 0.00182899
vernier = 0.000914493
Gmin = 4.84615e-06
vernier = 0.000457247
Gmin = 0
Gmin stepping failed

Starting source stepping with srcstepmethod=0
Source Step = 3.0303%
Source Step = 33.3333%
Source Step = 33.866%
vernier = 0.000976562
Source Step = 33.8838%
Source Step = 33.9134%
Source Step = 33.9429%
Source Step = 33.9725%
Source Step = 34.0021%
vernier = 0.00146484
Source Step = 34.0421%
Source Step = 34.0865%
Source Step = 34.1309%
Source Step = 34.1752%
Source Step = 34.2196%
vernier = 0.00219727
Source Step = 34.2773%
Source Step = 34.3439%
Source Step = 34.4105%
Source Step = 34.4771%
Source Step = 34.5437%
vernier = 0.0032959
Source Step = 34.6269%
Source Step = 34.7268%
Source Step = 34.8267%
Source Step = 34.9265%
Source Step = 35.0264%
vernier = 0.00494385
Source Step = 35.1463%
Source Step = 35.2961%
Source Step = 35.4459%
Source Step = 35.5957%
Source Step = 35.7455%
vernier = 0.00741577
Source Step = 35.9178%
Source Step = 36.1425%
Source Step = 36.3672%
Source Step = 36.592%
Source Step = 36.8167%
vernier = 0.0111237
Source Step = 37.0639%
Source Step = 37.1903%
Source Step = 37.2746%
Source Step = 37.3588%
Source Step = 37.4431%
Source Step = 37.5274%
vernier = 0.00417137
Source Step = 37.6201%
Source Step = 37.7465%
Source Step = 37.8729%
Source Step = 37.9993%
Source Step = 38.1257%
vernier = 0.00625706
Source Step = 38.2584%
Source Step = 38.448%
Source Step = 38.6376%
Source Step = 38.8272%
Source Step = 39.0168%
Source Step = 39.2064%
vernier = 0.00938559
Source Step = 39.4909%
Source Step = 39.7753%
Source Step = 40.0597%
Source Step = 40.3441%
Source Step = 40.6285%
vernier = 0.0140784
Source Step = 41.0409%
Source Step = 41.4675%
Source Step = 41.8941%
Source Step = 42.3208%
Source Step = 42.7474%
vernier = 0.0211176
Source Step = 43.3446%
Source Step = 43.9846%
Source Step = 44.6245%
Source Step = 45.2644%
Source Step = 45.9043%
vernier = 0.0316764
Source Step = 46.7682%
Source Step = 47.7281%
Source Step = 48.688%
Source Step = 49.6479%
Source Step = 50.6078%
vernier = 0.0475145
Source Step = 51.8557%
Source Step = 53.2955%
Source Step = 54.7353%
Source Step = 56.1752%
Source Step = 57.615%
vernier = 0.0712718
Source Step = 59.4148%
Source Step = 61.5745%
Source Step = 63.7343%
Source Step = 65.894%
Source Step = 68.0538%
vernier = 0.106908
Source Step = 70.6455%
Source Step = 73.8851%
Source Step = 77.1247%
Source Step = 80.3644%
Source Step = 83.604%
vernier = 0.160362
Source Step = 87.3296%
Source Step = 91.3386%
vernier = 0.0100226
Source Step = 91.2855%
Source Step = 91.3614%
Source Step = 91.4373%
Source Step = 91.5132%
Source Step = 91.5892%
Source Step = 91.6651%
Source Step = 91.741%
Source Step = 91.817%
Source Step = 91.8929%
Source Step = 91.9688%
Source Step = 92.0447%
Source Step = 92.1207%
Source Step = 92.1966%
Source Step = 92.2725%
vernier = 0.00375847
Source Step = 92.375%
Source Step = 92.4889%
Source Step = 92.6028%
Source Step = 92.7167%
Source Step = 92.8306%
vernier = 0.00563771
Source Step = 92.9787%
Source Step = 93.1495%
Source Step = 93.3203%
Source Step = 93.4912%
Source Step = 93.662%
vernier = 0.00845657
Source Step = 93.8756%
Source Step = 94.1318%
Source Step = 94.3881%
Source Step = 94.6444%
Source Step = 94.9006%
vernier = 0.0126848
Source Step = 95.2081%
Source Step = 95.5925%
Source Step = 95.9769%
Source Step = 96.3613%
Source Step = 96.7457%
vernier = 0.0190273
Source Step = 97.1877%
Source Step = 97.7643%
Source Step = 98.3409%
Source Step = 98.9175%
Source Step = 99.4941%
vernier = 0.0285409
Source stepping succeeded in finding the operating point.


Date: Fri Apr 17 17:32:24 2020
Total elapsed time: 1.623 seconds.

tnom = 27
temp = 27
method = modified trap
totiter = 33518
traniter = 19243
tranpoints = 5715
accept = 4119
rejected = 1596
matrix size = 93
fillins = 157
solver = Normal
Thread vector: 15.9/8.8[2] 4.6/4.7[1] 3.8/19.8[1] 1.2/5.1[1]  2592/500
Matrix Compiler1: 17030 object code size  3.3/1.8/[1.1]
Matrix Compiler2: off

