Circuit: * C:\Users\matia\Desktop\Facultad\2020 1° cuatrimestre\Circuitos 2\Repositorio\ProyectoDCE\TP1\Onda cuadrada - pruebas\Ejemplos Rashid\Onda Cuadrada Ejemplo 16-1.asc

Direct Newton iteration for .op point succeeded.

Date: Fri Apr 17 20:29:14 2020
Total elapsed time: 1.634 seconds.

tnom = 27
temp = 27
method = modified trap
totiter = 59141
traniter = 59117
tranpoints = 21420
accept = 21018
rejected = 402
matrix size = 20
fillins = 14
solver = Normal
Matrix Compiler1: 1.38 KB object code size  0.4/0.3/[0.1]
Matrix Compiler2: 1.74 KB object code size  0.2/0.3/[0.2]

