Questionable use of curly braces in ".model uf4007 d (ikf=.15 n=2 is=100n rs=0.03 eg=1.11 xti=3 cjo=2.92655e-011 vj=0.851862 m=0.334552 fc=0.5 tt={tt=1.84973e-007} bv=1000 ibv=0.2 kf=0 af=1 iave=1000m vpk=800 mfg=gp1000v1a type=silicon)"
    Error: undefined symbol in: "[tt]=1.84973e-007"
Circuit: * C:\Users\matia\Desktop\Facultad\2020 1° cuatrimestre\Circuitos 2\Repositorio\ProyectoDCE\TP1\Ejercicio 3\Ej3_Sedra.asc

WARNING: Less than two connections to node VCC+.  This node is used by V5.
WARNING: Less than two connections to node VCC-.  This node is used by V6.
Direct Newton iteration for .op point succeeded.

Date: Fri Apr 24 19:08:08 2020
Total elapsed time: 0.351 seconds.

tnom = 27
temp = 27
method = modified trap
totiter = 22279
traniter = 22257
tranpoints = 10602
accept = 10376
rejected = 226
matrix size = 22
fillins = 12
solver = Normal
Matrix Compiler1: 1.45 KB object code size  0.3/0.2/[0.1]
Matrix Compiler2: off  [0.2]/0.2/0.2

