Questionable use of curly braces in ".model uf4007 d (ikf=.15 n=2 is=100n rs=0.03 eg=1.11 xti=3 cjo=2.92655e-011 vj=0.851862 m=0.334552 fc=0.5 tt={tt=1.84973e-007} bv=1000 ibv=0.2 kf=0 af=1 iave=1000m vpk=800 mfg=gp1000v1a type=silicon)"
    Error: undefined symbol in: "[tt]=1.84973e-007"
Circuit: * C:\Users\matia\Desktop\Facultad\2020 1° cuatrimestre\Circuitos 2\Repositorio\ProyectoDCE\TP1\Ejercicio 3\EJERCICIOunidos2.asc

WARNING: Node NC_01 is floating.

WARNING: Less than two connections to node VCC+.  This node is used by V5.
WARNING: Less than two connections to node VCC-.  This node is used by V6.
Direct Newton iteration failed to find .op point.  (Use ".option noopiter" to skip.)
Starting Gmin stepping
Gmin = 10
Gmin = 1.07374
Gmin = 0.115292
Gmin = 0.0123794
Gmin = 0.00132923
Gmin = 0.000142725
vernier = 0.5
vernier = 0.666667
Gmin = 4.65514e-005
vernier = 0.888888
Gmin = 7.53781e-006
vernier = 1
Gmin = 8.09366e-007
Gmin = 8.6905e-008
Gmin = 9.33136e-009
Gmin = 1.00195e-009
Gmin = 1.07583e-010
Gmin = 1.15517e-011
Gmin = 1.24035e-012
Gmin = 1.33182e-013
Gmin = 0
Gmin stepping succeeded in finding the operating point.

Changing Tseed to 1e-011

Date: Fri Apr 24 14:47:58 2020
Total elapsed time: 0.375 seconds.

tnom = 27
temp = 27
method = modified trap
totiter = 32232
traniter = 31557
tranpoints = 13545
accept = 12308
rejected = 1236
matrix size = 32
fillins = 11
solver = Normal
Matrix Compiler1: 3.21 KB object code size  0.6/0.3/[0.2]
Matrix Compiler2: 3.17 KB object code size  0.3/0.4/[0.2]

