Questionable use of curly braces in ".model uf4007 d (ikf=.15 n=2 is=100n rs=0.03 eg=1.11 xti=3 cjo=2.92655e-011 vj=0.851862 m=0.334552 fc=0.5 tt={tt=1.84973e-007} bv=1000 ibv=0.2 kf=0 af=1 iave=1000m vpk=800 mfg=gp1000v1a type=silicon)"
    Error: undefined symbol in: "[tt]=1.84973e-007"
Circuit: * C:\Users\matia\Desktop\Facultad\2020 1° cuatrimestre\Circuitos 2\Repositorio\ProyectoDCE\TP1\Ejercicio 3\EJERCICIOunidos.asc

WARNING: Node NC_01 is floating.

WARNING: Less than two connections to node VCC+.  This node is used by V5.
WARNING: Less than two connections to node VCC-.  This node is used by V6.
WARNING: Less than two connections to node NC_06.  This node is used by R9.
Direct Newton iteration failed to find .op point.  (Use ".option noopiter" to skip.)
Starting Gmin stepping
Gmin = 10
Gmin = 1.07374
Gmin = 0.115292
Gmin = 0.0123794
Gmin = 0.00132923
Gmin = 0.000142725
Gmin = 1.5325e-005
Gmin = 1.6455e-006
Gmin = 1.76685e-007
Gmin = 1.89714e-008
Gmin = 2.03704e-009
Gmin = 2.18725e-010
Gmin = 2.34854e-011
Gmin = 2.52173e-012
Gmin = 2.70769e-013
Gmin = 0
Gmin stepping succeeded in finding the operating point.

Changing Tseed to 1e-011

Date: Fri Apr 24 00:15:01 2020
Total elapsed time: 0.671 seconds.

tnom = 27
temp = 27
method = modified trap
totiter = 33539
traniter = 33006
tranpoints = 13749
accept = 12498
rejected = 1250
matrix size = 33
fillins = 12
solver = Normal
Matrix Compiler1: 3.30 KB object code size  1.1/0.6/[0.5]
Matrix Compiler2: 3.25 KB object code size  0.6/0.6/[0.4]

