Circuit: * C:\Users\matia\Desktop\Facultad\2020 1° cuatrimestre\Circuitos 2\Repositorio\ProyectoDCE\TP1\Ejercicio 2\Ejercicio2b.asc

Per .tran options, skipping operating point for transient analysis.
Heightened Def Con from 1e-017 to 1.99e-015

Date: Thu Apr 23 18:50:34 2020
Total elapsed time: 0.032 seconds.

tnom = 27
temp = 27
method = modified trap
totiter = 2633
traniter = 2633
tranpoints = 1303
accept = 1197
rejected = 107
matrix size = 10
fillins = 0
solver = Normal
Matrix Compiler1: 688 bytes object code size  0.1/0.1/[0.1]
Matrix Compiler2: off  [0.1]/0.1/0.1

