Circuit: * C:\Users\matia\Desktop\Facultad\2020 1° cuatrimestre\Circuitos 2\Repositorio\ProyectoDCE\TP1\Ejercicio 2\Ejercicio2a.asc

Per .tran options, skipping operating point for transient analysis.

Date: Thu Apr 23 18:45:09 2020
Total elapsed time: 0.203 seconds.

tnom = 27
temp = 27
method = modified trap
totiter = 2315
traniter = 2315
tranpoints = 1150
accept = 1142
rejected = 8
matrix size = 10
fillins = 0
solver = Normal
Matrix Compiler1: 472 bytes object code size  0.1/0.1/[0.1]
Matrix Compiler2: 864 bytes object code size  0.1/0.1/[0.1]

